*SPEF "ieee 1481-1999"
*DESIGN "async_up_down"
*DATE "11:11:11 Fri 11 11, 1111"
*VENDOR "OpenRCX"
*PROGRAM "Parallel Extraction"
*VERSION "1.0"
*DESIGN_FLOW "NAME_SCOPE LOCAL" "PIN_CAP NONE"
*DIVIDER /
*DELIMITER :
*BUS_DELIMITER []
*T_UNIT 1 NS
*C_UNIT 1 PF
*R_UNIT 1 OHM
*L_UNIT 1 HENRY

*NAME_MAP
*1 in_bias
*2 in_inn
*3 out_adc
*4 ring_adc
*7 r_VSS
*8 r_VDD
*9 one_bit_adc
*10 ring_osc
*11 PHY_0
*12 PHY_1
*13 PHY_2
*14 PHY_3
*15 PHY_4
*16 PHY_5
*17 PHY_6
*18 PHY_7
*19 PHY_8
*20 PHY_9
*21 PHY_10
*22 PHY_11
*23 PHY_12
*24 PHY_13
*25 PHY_14
*26 PHY_15
*27 PHY_16
*28 PHY_17
*29 PHY_18
*30 PHY_19
*31 PHY_20
*32 PHY_21
*33 PHY_22
*34 PHY_23
*35 PHY_24
*36 PHY_25
*37 PHY_26
*38 PHY_27
*39 PHY_28
*40 PHY_29
*41 PHY_30
*42 PHY_31
*43 PHY_32
*44 PHY_33
*45 PHY_34
*46 PHY_35
*47 PHY_36
*48 PHY_37
*49 PHY_38
*50 PHY_39
*51 PHY_40
*52 PHY_41
*53 PHY_42
*54 PHY_43
*55 PHY_44
*56 PHY_45
*57 PHY_46
*58 PHY_47
*59 PHY_48
*60 PHY_49
*61 PHY_50
*62 PHY_51
*63 PHY_52
*64 PHY_53
*65 PHY_54
*66 PHY_55
*67 PHY_56
*68 PHY_57
*69 PHY_58
*70 PHY_59
*71 TAP_60
*72 TAP_61
*73 TAP_62
*74 TAP_63
*75 TAP_64
*76 TAP_65
*77 TAP_66
*78 TAP_67
*79 TAP_68
*80 TAP_69
*81 TAP_70
*82 TAP_71
*83 TAP_72
*84 TAP_73
*85 TAP_74
*86 TAP_75
*87 TAP_76
*88 TAP_77
*89 TAP_78
*90 TAP_79
*91 TAP_80
*92 TAP_81
*93 TAP_82
*94 TAP_83
*95 TAP_84
*96 FILLER_0_4
*97 FILLER_0_12
*98 FILLER_0_20
*99 FILLER_0_28
*100 FILLER_0_31
*101 FILLER_0_39
*102 FILLER_0_47
*103 FILLER_0_55
*104 FILLER_0_59
*105 FILLER_0_61
*106 FILLER_0_69
*107 FILLER_0_77
*108 FILLER_0_85
*109 FILLER_0_89
*110 FILLER_0_91
*111 FILLER_0_99
*112 FILLER_0_107
*113 FILLER_0_115
*114 FILLER_0_119
*115 FILLER_0_121
*116 FILLER_0_129
*117 FILLER_0_137
*118 FILLER_0_145
*119 FILLER_0_149
*120 FILLER_0_151
*121 FILLER_0_155
*122 FILLER_0_157
*123 FILLER_1_4
*124 FILLER_1_12
*125 FILLER_1_20
*126 FILLER_1_28
*127 FILLER_1_36
*128 FILLER_1_44
*129 FILLER_1_52
*130 FILLER_1_61
*131 FILLER_1_69
*132 FILLER_1_77
*133 FILLER_1_85
*134 FILLER_1_93
*135 FILLER_1_101
*136 FILLER_1_109
*137 FILLER_1_117
*138 FILLER_1_119
*139 FILLER_1_121
*140 FILLER_1_129
*141 FILLER_1_137
*142 FILLER_1_145
*143 FILLER_1_153
*144 FILLER_1_157
*145 FILLER_2_4
*146 FILLER_2_12
*147 FILLER_2_20
*148 FILLER_2_28
*149 FILLER_2_31
*150 FILLER_2_39
*151 FILLER_2_47
*152 FILLER_2_55
*153 FILLER_2_59
*154 FILLER_2_61
*155 FILLER_2_69
*156 FILLER_2_77
*157 FILLER_2_85
*158 FILLER_2_89
*159 FILLER_2_91
*160 FILLER_2_99
*161 FILLER_2_107
*162 FILLER_2_115
*163 FILLER_2_119
*164 FILLER_2_121
*165 FILLER_2_129
*166 FILLER_2_137
*167 FILLER_2_145
*168 FILLER_2_149
*169 FILLER_2_151
*170 FILLER_2_155
*171 FILLER_2_157
*172 FILLER_3_4
*173 FILLER_3_12
*174 FILLER_3_20
*175 FILLER_3_68
*176 FILLER_3_72
*177 FILLER_3_74
*178 FILLER_3_135
*179 FILLER_3_143
*180 FILLER_3_151
*181 FILLER_3_155
*182 FILLER_3_157
*183 FILLER_4_4
*184 FILLER_4_12
*185 FILLER_4_20
*186 FILLER_4_68
*187 FILLER_4_72
*188 FILLER_4_74
*189 FILLER_4_135
*190 FILLER_4_143
*191 FILLER_4_151
*192 FILLER_4_155
*193 FILLER_4_157
*194 FILLER_5_4
*195 FILLER_5_12
*196 FILLER_5_20
*197 FILLER_5_68
*198 FILLER_5_72
*199 FILLER_5_74
*200 FILLER_5_135
*201 FILLER_5_143
*202 FILLER_5_151
*203 FILLER_5_155
*204 FILLER_5_157
*205 FILLER_6_4
*206 FILLER_6_12
*207 FILLER_6_20
*208 FILLER_6_68
*209 FILLER_6_72
*210 FILLER_6_74
*211 FILLER_6_135
*212 FILLER_6_143
*213 FILLER_6_151
*214 FILLER_6_155
*215 FILLER_6_157
*216 FILLER_7_4
*217 FILLER_7_12
*218 FILLER_7_20
*219 FILLER_7_68
*220 FILLER_7_72
*221 FILLER_7_74
*222 FILLER_7_135
*223 FILLER_7_143
*224 FILLER_7_151
*225 FILLER_7_155
*226 FILLER_7_157
*227 FILLER_8_4
*228 FILLER_8_12
*229 FILLER_8_20
*230 FILLER_8_68
*231 FILLER_8_72
*232 FILLER_8_74
*233 FILLER_8_135
*234 FILLER_8_143
*235 FILLER_8_151
*236 FILLER_8_155
*237 FILLER_8_157
*238 FILLER_9_4
*239 FILLER_9_12
*240 FILLER_9_20
*241 FILLER_9_68
*242 FILLER_9_72
*243 FILLER_9_74
*244 FILLER_9_135
*245 FILLER_9_143
*246 FILLER_9_151
*247 FILLER_9_155
*248 FILLER_9_157
*249 FILLER_10_4
*250 FILLER_10_12
*251 FILLER_10_20
*252 FILLER_10_68
*253 FILLER_10_72
*254 FILLER_10_74
*255 FILLER_10_135
*256 FILLER_10_143
*257 FILLER_10_151
*258 FILLER_10_155
*259 FILLER_10_157
*260 FILLER_11_4
*261 FILLER_11_12
*262 FILLER_11_20
*263 FILLER_11_28
*264 FILLER_11_31
*265 FILLER_11_39
*266 FILLER_11_47
*267 FILLER_11_55
*268 FILLER_11_59
*269 FILLER_11_61
*270 FILLER_11_69
*271 FILLER_11_77
*272 FILLER_11_85
*273 FILLER_11_89
*274 FILLER_11_91
*275 FILLER_11_99
*276 FILLER_11_107
*277 FILLER_11_115
*278 FILLER_11_119
*279 FILLER_11_121
*280 FILLER_11_129
*281 FILLER_11_137
*282 FILLER_11_145
*283 FILLER_11_149
*284 FILLER_11_151
*285 FILLER_11_155
*286 FILLER_11_157
*287 FILLER_12_4
*288 FILLER_12_12
*289 FILLER_12_20
*290 FILLER_12_28
*291 FILLER_12_31
*292 FILLER_12_39
*293 FILLER_12_47
*294 FILLER_12_55
*295 FILLER_12_63
*296 FILLER_12_71
*297 FILLER_12_79
*298 FILLER_12_87
*299 FILLER_12_89
*300 FILLER_12_91
*301 FILLER_12_99
*302 FILLER_12_107
*303 FILLER_12_115
*304 FILLER_12_123
*305 FILLER_12_131
*306 FILLER_12_139
*307 FILLER_12_147
*308 FILLER_12_149
*309 FILLER_12_151
*310 FILLER_12_155
*311 FILLER_12_157
*312 FILLER_13_4
*313 FILLER_13_12
*314 FILLER_13_20
*315 FILLER_13_28
*316 FILLER_13_31
*317 FILLER_13_39
*318 FILLER_13_47
*319 FILLER_13_55
*320 FILLER_13_59
*321 FILLER_13_61
*322 FILLER_13_69
*323 FILLER_13_77
*324 FILLER_13_85
*325 FILLER_13_89
*326 FILLER_13_91
*327 FILLER_13_99
*328 FILLER_13_107
*329 FILLER_13_115
*330 FILLER_13_119
*331 FILLER_13_121
*332 FILLER_13_129
*333 FILLER_13_137
*334 FILLER_13_145
*335 FILLER_13_149
*336 FILLER_13_151
*337 FILLER_13_155
*338 FILLER_13_157

*PORTS
in_bias I
in_inn I
out_adc O
r_VSS\(0\) I
r_VSS\(1\) I
r_VSS\(2\) I
r_VDD\(0\) I
r_VDD\(1\) I
r_VDD\(2\) I

*D_NET *1 0.00983472
*CONN
*P in_bias I
*I *9:BIAS I *D COMPARATOR
*CAP
1 in_bias 0.000730785
2 *9:BIAS 0.000986872
3 *1:13 0.00202075
4 *1:8 0.0031997
5 *1:7 0.00289661
6 *1:13 r_VDD\(0\) 0
*RES
1 in_bias *1:7 25.1405 
2 *1:7 *1:8 58.9568 
3 *1:8 *1:13 35.3319 
4 *1:13 *9:BIAS 19.4955 
*END

*D_NET *2 0.00555151
*CONN
*P in_inn I
*I *9:INN I *D COMPARATOR
*CAP
1 in_inn 0.00110227
2 *9:INN 0.00146884
3 *2:10 0.00257112
4 *9:INN *9:INP 0.000409281
*RES
1 in_inn *2:10 39.3624 
2 *2:10 *9:INN 45.336 
*END

*D_NET *3 0.00723351
*CONN
*P out_adc O
*I *9:OUT I *D COMPARATOR
*CAP
1 out_adc 0.00154884
2 *9:OUT 0.000394334
3 *3:16 0.00206791
4 *3:13 0.00322242
*RES
1 out_adc *3:13 37.5536 
2 *3:13 *3:16 48.6877 
3 *3:16 *9:OUT 9.51266 
*END

*D_NET *4 0.00447364
*CONN
*I *9:INP I *D COMPARATOR
*I *10:INP I *D RING_OSCILLATOR
*CAP
1 *9:INP 0.000423624
2 *10:INP 0.00160856
3 *4:11 0.00203218
4 *4:11 *9:VDD 0
5 *9:INN *9:INP 0.000409281
*RES
1 *10:INP *4:11 49.5279 
2 *4:11 *9:INP 18.8835 
*END

*D_NET *7 0.0124065
*CONN
*P r_VSS\(1\) I
*P r_VSS\(0\) I
*P r_VSS\(2\) I
*I *9:GND I *D COMPARATOR
*I *10:GND I *D RING_OSCILLATOR
*CAP
1 r_VSS\(1\) 0
2 r_VSS\(0\) 0.000257295
3 r_VSS\(2\) 0.000723651
4 *9:GND 0.000576389
5 *10:GND 0.000424736
6 *7:25 0.00130895
7 *7:20 0.00378849
8 *7:11 0.00361214
9 *7:20 r_VDD\(0\) 0.00101666
10 *7:20 *8:19 0.00069815
*RES
1 r_VSS\(2\) *7:11 12.2421 
2 *7:11 *7:20 48.2503 
3 *7:20 *7:25 3.03204 
4 *7:25 r_VSS\(0\) 0.674814 
5 *7:25 r_VSS\(1\) 0.0058 
6 *7:20 *10:GND 1.8878 
7 *7:11 *9:GND 19.3653 
*END

*D_NET *8 0.00862313
*CONN
*P r_VDD\(0\) I
*P r_VDD\(1\) I
*P r_VDD\(2\) I
*I *9:VDD I *D COMPARATOR
*I *10:VCC I *D RING_OSCILLATOR
*CAP
1 r_VDD\(0\) 0.00088153
2 r_VDD\(1\) 2.64909e-05
3 r_VDD\(2\) 0.000589485
4 *9:VDD 0.00017497
5 *10:VCC 0.000997267
6 *8:35 0.00158233
7 *8:19 0.00166595
8 *8:6 0.000990303
9 *1:13 r_VDD\(0\) 0
10 *4:11 *9:VDD 0
11 *7:20 r_VDD\(0\) 0.00101666
12 *7:20 *8:19 0.00069815
*RES
1 r_VDD\(2\) *8:6 2.07686 
2 *8:6 r_VDD\(1\) 0.470565 
3 *8:6 *8:19 20.6091 
4 *8:19 r_VDD\(0\) 33.2809 
5 *8:19 *8:35 14.4294 
6 *8:35 *10:VCC 6.0792 
7 *8:35 *9:VDD 5.56993 
*END
